Version 4
SHEET 1 2852 1332
WIRE -736 -80 -864 -80
WIRE -704 -80 -736 -80
WIRE -592 -80 -640 -80
WIRE -448 -80 -592 -80
WIRE 592 -80 -448 -80
WIRE 1712 -80 592 -80
WIRE 2768 -80 1712 -80
WIRE -736 -32 -736 -80
WIRE -592 -32 -592 -80
WIRE -1104 48 -1200 48
WIRE -1088 48 -1104 48
WIRE -864 48 -864 -80
WIRE -864 48 -1040 48
WIRE -1200 80 -1200 48
WIRE -736 80 -736 32
WIRE -688 80 -736 80
WIRE -592 80 -592 32
WIRE -592 80 -624 80
WIRE 592 112 592 -80
WIRE 640 112 592 112
WIRE 768 112 640 112
WIRE 1072 112 928 112
WIRE 1184 112 1072 112
WIRE 1264 112 1184 112
WIRE 1296 112 1264 112
WIRE 2176 112 1296 112
WIRE 2768 112 2176 112
WIRE -1200 192 -1200 160
WIRE -1104 192 -1200 192
WIRE -1088 192 -1104 192
WIRE -1040 192 -1056 192
WIRE -592 192 -592 80
WIRE -592 192 -1040 192
WIRE 1072 192 1072 112
WIRE 1264 256 1264 112
WIRE 1712 256 1712 -80
WIRE 2176 256 2176 112
WIRE 1184 272 1184 112
WIRE 848 288 848 208
WIRE 1072 288 1072 272
WIRE 1072 288 848 288
WIRE 1072 304 1072 288
WIRE -1104 336 -1200 336
WIRE -1088 336 -1104 336
WIRE -448 336 -448 -80
WIRE -448 336 -1040 336
WIRE 640 336 640 112
WIRE -1200 368 -1200 336
WIRE -1248 384 -1360 384
WIRE 1568 400 1424 400
WIRE 1712 400 1712 320
WIRE 1712 400 1648 400
WIRE 1984 400 1712 400
WIRE 2176 400 2176 320
WIRE 2176 400 2064 400
WIRE 2352 400 2176 400
WIRE 2496 400 2416 400
WIRE 2608 400 2496 400
WIRE 2768 400 2608 400
WIRE -1248 432 -1440 432
WIRE 1712 448 1712 400
WIRE 2608 448 2608 400
WIRE 2496 464 2496 400
WIRE -1440 480 -1440 432
WIRE -1200 480 -1200 448
WIRE -1104 480 -1200 480
WIRE -640 480 -1040 480
WIRE -1360 560 -1360 384
WIRE -1360 560 -1440 560
WIRE -1440 592 -1440 560
WIRE -1104 608 -1200 608
WIRE -1088 608 -1104 608
WIRE -640 608 -640 480
WIRE -640 608 -1040 608
WIRE 1424 608 1424 400
WIRE 1424 608 -640 608
WIRE -1200 624 -1200 608
WIRE -640 656 -640 608
WIRE -1200 752 -1200 704
WIRE -1104 752 -1200 752
WIRE -736 752 -736 80
WIRE -736 752 -1040 752
WIRE -640 752 -640 720
WIRE -640 752 -736 752
WIRE 256 752 -640 752
WIRE 640 752 640 400
WIRE 640 752 256 752
WIRE 1072 752 1072 384
WIRE 1072 752 640 752
WIRE 1184 752 1184 336
WIRE 1184 752 1072 752
WIRE 1264 752 1264 336
WIRE 1264 752 1184 752
WIRE 1712 752 1712 512
WIRE 1712 752 1264 752
WIRE 2496 752 2496 528
WIRE 2496 752 1712 752
WIRE 2608 752 2608 528
WIRE 2608 752 2496 752
WIRE 2768 752 2608 752
WIRE 256 816 256 752
FLAG 256 816 0
FLAG 1296 112 Vout
FLAG 640 112 Vc
FLAG -1440 592 0
FLAG 2768 400 Sense
FLAG -640 480 Vswitch
SYMBOL voltage -1200 64 R0
WINDOW 123 0 0 Left 0
WINDOW 39 0 0 Left 0
WINDOW 3 -218 51 Left 2
SYMATTR InstName V1
SYMATTR Value SINE(0 14.5 50)
SYMBOL diode -704 -64 R270
WINDOW 0 32 32 VTop 2
WINDOW 3 0 32 VBottom 2
SYMATTR InstName D1
SYMBOL diode -720 32 R180
WINDOW 0 24 64 Left 2
WINDOW 3 24 0 Left 2
SYMATTR InstName D3
SYMBOL diode -688 96 R270
WINDOW 0 32 32 VTop 2
WINDOW 3 0 32 VBottom 2
SYMATTR InstName D2
SYMBOL diode -576 32 R180
WINDOW 0 24 64 Left 2
WINDOW 3 24 0 Left 2
SYMATTR InstName D4
SYMBOL res 1056 176 R0
SYMATTR InstName R1
SYMATTR Value 200
SYMBOL res 1056 288 R0
SYMATTR InstName R2
SYMATTR Value 330R
SYMBOL cap 1168 272 R0
SYMATTR InstName C1
SYMATTR Value 10µ
SYMBOL cap 624 336 R0
SYMATTR InstName C2
SYMATTR Value 330µ
SYMBOL res 1248 240 R0
SYMATTR InstName Rload
SYMATTR Value 16.5
SYMBOL LM317 848 144 R0
SYMATTR InstName U2
SYMBOL ind -1216 608 R0
SYMATTR InstName L1
SYMATTR Value 10µH
SYMATTR SpiceLine Rser=5
SYMBOL voltage -1440 464 R0
WINDOW 3 -545 193 Left 2
WINDOW 123 0 0 Left 0
WINDOW 39 0 0 Left 0
SYMATTR InstName V2
SYMATTR Value PULSE(0 12 0.01 0.00000001 0.00000001 0.08 0.17 2)
SYMBOL sw -1200 352 R0
WINDOW 3 -29 112 Left 2
SYMATTR InstName S1
SYMATTR Value MYSW
SYMBOL res 1664 384 R90
WINDOW 0 0 56 VBottom 2
WINDOW 3 32 56 VTop 2
SYMATTR InstName R3
SYMATTR Value 1k
SYMBOL res 2592 432 R0
SYMATTR InstName R4
SYMATTR Value 10K
SYMBOL diode 1728 512 R180
WINDOW 0 24 64 Left 2
WINDOW 3 24 0 Left 2
SYMATTR InstName D5
SYMBOL diode 1728 320 R180
WINDOW 0 24 64 Left 2
WINDOW 3 24 0 Left 2
SYMATTR InstName D6
SYMBOL res 2080 384 R90
WINDOW 0 0 56 VBottom 2
WINDOW 3 32 56 VTop 2
SYMATTR InstName R5
SYMATTR Value 1k
SYMBOL diode 2192 320 R180
WINDOW 0 24 64 Left 2
WINDOW 3 24 0 Left 2
SYMATTR InstName D7
SYMBOL diode 2352 416 R270
WINDOW 0 32 32 VTop 2
WINDOW 3 0 32 VBottom 2
SYMATTR InstName D8
SYMBOL cap 2480 464 R0
SYMATTR InstName C3
SYMATTR Value 10µ
SYMBOL Misc\\jumper -1072 -16 R0
SYMATTR InstName 15VAC.1
SYMBOL Misc\\jumper -1072 128 R0
SYMATTR InstName 15VAC.2
SYMBOL Misc\\jumper -1072 272 R0
SYMATTR InstName SW.1
SYMBOL Misc\\jumper -1072 416 R0
SYMATTR InstName SW.2
SYMBOL Misc\\jumper -1072 544 R0
WINDOW 0 -4 32 Bottom 2
SYMATTR InstName SOL.1
SYMBOL Misc\\jumper -1072 688 R0
SYMATTR InstName SOL.2
SYMBOL diode -624 720 R180
WINDOW 0 24 64 Left 2
WINDOW 3 24 0 Left 2
SYMATTR InstName D9
TEXT -1912 -88 Left 2 !.tran 0.5
TEXT -144 1264 Left 2 !.model MYSW SW(Ron=1 Roff=1Meg Vt=.5 Vh=-.4)
