Version 4
SHEET 1 2852 1332
WIRE 352 -80 224 -80
WIRE 384 -80 352 -80
WIRE 496 -80 448 -80
WIRE 640 -80 496 -80
WIRE 1712 -80 640 -80
WIRE 2768 -80 1712 -80
WIRE 352 -32 352 -80
WIRE 496 -32 496 -80
WIRE -16 48 -112 48
WIRE 0 48 -16 48
WIRE 224 48 224 -80
WIRE 224 48 48 48
WIRE -112 80 -112 48
WIRE 352 80 352 32
WIRE 400 80 352 80
WIRE 496 80 496 32
WIRE 496 80 464 80
WIRE 640 112 640 -80
WIRE 704 112 640 112
WIRE 768 112 704 112
WIRE 1072 112 928 112
WIRE 1184 112 1072 112
WIRE 1264 112 1184 112
WIRE 1296 112 1264 112
WIRE 2176 112 1296 112
WIRE 2768 112 2176 112
WIRE -112 192 -112 160
WIRE -16 192 -112 192
WIRE 0 192 -16 192
WIRE 48 192 32 192
WIRE 496 192 496 80
WIRE 496 192 48 192
WIRE 1072 192 1072 112
WIRE 1264 256 1264 112
WIRE 1712 256 1712 -80
WIRE 2176 256 2176 112
WIRE 1184 272 1184 112
WIRE 848 288 848 208
WIRE 1072 288 1072 272
WIRE 1072 288 848 288
WIRE 1072 304 1072 288
WIRE -16 336 -112 336
WIRE 0 336 -16 336
WIRE 640 336 640 112
WIRE 640 336 48 336
WIRE -112 368 -112 336
WIRE -160 384 -272 384
WIRE 1568 400 1424 400
WIRE 1712 400 1712 320
WIRE 1712 400 1648 400
WIRE 1984 400 1712 400
WIRE 2176 400 2176 320
WIRE 2176 400 2064 400
WIRE 2352 400 2176 400
WIRE 2496 400 2416 400
WIRE 2608 400 2496 400
WIRE 2768 400 2608 400
WIRE -160 432 -352 432
WIRE 1712 448 1712 400
WIRE 2608 448 2608 400
WIRE 2496 464 2496 400
WIRE -352 480 -352 432
WIRE -112 480 -112 448
WIRE -16 480 -112 480
WIRE 208 480 48 480
WIRE 1424 480 1424 400
WIRE 1424 480 208 480
WIRE -272 560 -272 384
WIRE -272 560 -352 560
WIRE -352 592 -352 560
WIRE -16 608 -112 608
WIRE 208 608 208 480
WIRE 208 608 48 608
WIRE 1424 608 1424 480
WIRE -112 624 -112 608
WIRE 640 640 640 336
WIRE 208 656 208 608
WIRE -112 752 -112 704
WIRE -16 752 -112 752
WIRE 208 752 208 720
WIRE 208 752 48 752
WIRE 352 752 352 80
WIRE 352 752 208 752
WIRE 640 752 640 704
WIRE 640 752 352 752
WIRE 1072 752 1072 384
WIRE 1072 752 640 752
WIRE 1184 752 1184 336
WIRE 1184 752 1072 752
WIRE 1264 752 1264 336
WIRE 1264 752 1184 752
WIRE 1712 752 1712 512
WIRE 1712 752 1264 752
WIRE 2496 752 2496 528
WIRE 2496 752 1712 752
WIRE 2608 752 2608 528
WIRE 2608 752 2496 752
WIRE 2768 752 2608 752
WIRE 640 816 640 752
FLAG 640 816 0
FLAG 1296 112 Vout
FLAG 704 112 Vc
FLAG -352 592 0
FLAG 2768 400 Sense
FLAG 208 480 Vswitch
SYMBOL voltage -112 64 R0
WINDOW 123 0 0 Left 0
WINDOW 39 0 0 Left 0
WINDOW 3 -218 51 Left 2
SYMATTR InstName V1
SYMATTR Value SINE(0 14.5 50)
SYMBOL diode 384 -64 R270
WINDOW 0 32 32 VTop 2
WINDOW 3 0 32 VBottom 2
SYMATTR InstName D1
SYMBOL diode 368 32 R180
WINDOW 0 24 64 Left 2
WINDOW 3 24 0 Left 2
SYMATTR InstName D3
SYMBOL diode 400 96 R270
WINDOW 0 32 32 VTop 2
WINDOW 3 0 32 VBottom 2
SYMATTR InstName D2
SYMBOL diode 512 32 R180
WINDOW 0 24 64 Left 2
WINDOW 3 24 0 Left 2
SYMATTR InstName D4
SYMBOL res 1056 176 R0
SYMATTR InstName R1
SYMATTR Value 200
SYMBOL res 1056 288 R0
SYMATTR InstName R2
SYMATTR Value 330R
SYMBOL cap 1168 272 R0
SYMATTR InstName C1
SYMATTR Value 10µ
SYMBOL cap 624 640 R0
SYMATTR InstName C2
SYMATTR Value 330µ
SYMBOL res 1248 240 R0
SYMATTR InstName Rload
SYMATTR Value 16.5
SYMBOL LM317 848 144 R0
SYMATTR InstName U2
SYMBOL ind -128 608 R0
SYMATTR InstName L1
SYMATTR Value 10µH
SYMATTR SpiceLine Rser=5
SYMBOL voltage -352 464 R0
WINDOW 3 -545 193 Left 2
WINDOW 123 0 0 Left 0
WINDOW 39 0 0 Left 0
SYMATTR InstName V2
SYMATTR Value PULSE(0 12 0.01 0.00000001 0.00000001 0.08 0.17 2)
SYMBOL sw -112 352 R0
WINDOW 3 -29 112 Left 2
SYMATTR InstName S1
SYMATTR Value MYSW
SYMBOL res 1664 384 R90
WINDOW 0 0 56 VBottom 2
WINDOW 3 32 56 VTop 2
SYMATTR InstName R3
SYMATTR Value 1k
SYMBOL res 2592 432 R0
SYMATTR InstName R4
SYMATTR Value 10K
SYMBOL diode 1728 512 R180
WINDOW 0 24 64 Left 2
WINDOW 3 24 0 Left 2
SYMATTR InstName D5
SYMBOL diode 1728 320 R180
WINDOW 0 24 64 Left 2
WINDOW 3 24 0 Left 2
SYMATTR InstName D6
SYMBOL res 2080 384 R90
WINDOW 0 0 56 VBottom 2
WINDOW 3 32 56 VTop 2
SYMATTR InstName R5
SYMATTR Value 1k
SYMBOL diode 2192 320 R180
WINDOW 0 24 64 Left 2
WINDOW 3 24 0 Left 2
SYMATTR InstName D7
SYMBOL diode 2352 416 R270
WINDOW 0 32 32 VTop 2
WINDOW 3 0 32 VBottom 2
SYMATTR InstName D8
SYMBOL cap 2480 464 R0
SYMATTR InstName C3
SYMATTR Value 10µ
SYMBOL Misc\\jumper 16 -16 R0
SYMATTR InstName 15VAC.1
SYMBOL Misc\\jumper 16 128 R0
SYMATTR InstName 15VAC.2
SYMBOL Misc\\jumper 16 272 R0
SYMATTR InstName SW.1
SYMBOL Misc\\jumper 16 416 R0
SYMATTR InstName SW.2
SYMBOL Misc\\jumper 16 544 R0
WINDOW 0 -4 32 Bottom 2
SYMATTR InstName SOL.1
SYMBOL Misc\\jumper 16 688 R0
SYMATTR InstName SOL.2
SYMBOL diode 224 720 R180
WINDOW 0 24 64 Left 2
WINDOW 3 24 0 Left 2
SYMATTR InstName D9
TEXT -824 -88 Left 2 !.tran 0.5
TEXT -144 1264 Left 2 !.model MYSW SW(Ron=1 Roff=1Meg Vt=.5 Vh=-.4)
