Version 4
SHEET 1 1424 1332
WIRE -16 -80 -16 -112
WIRE 96 -80 -16 -80
WIRE 224 -80 96 -80
WIRE 256 -80 224 -80
WIRE 368 -80 320 -80
WIRE 592 -80 368 -80
WIRE 224 -32 224 -80
WIRE 368 -32 368 -80
WIRE 224 80 224 32
WIRE 272 80 224 80
WIRE 368 80 368 32
WIRE 368 80 336 80
WIRE 432 80 368 80
WIRE 592 112 592 -80
WIRE 640 112 592 112
WIRE 768 112 640 112
WIRE 1072 112 928 112
WIRE 1184 112 1072 112
WIRE 1264 112 1184 112
WIRE 1296 112 1264 112
WIRE 1344 112 1296 112
WIRE -16 128 -16 -80
WIRE 1072 192 1072 112
WIRE 1264 256 1264 112
WIRE -16 272 -16 208
WIRE 432 272 432 80
WIRE 432 272 -16 272
WIRE 1184 272 1184 112
WIRE 848 288 848 208
WIRE 1072 288 1072 272
WIRE 1072 288 848 288
WIRE 1072 304 1072 288
WIRE 640 336 640 112
WIRE 224 576 224 80
WIRE 336 576 224 576
WIRE 640 576 640 400
WIRE 640 576 336 576
WIRE 1072 576 1072 384
WIRE 1072 576 640 576
WIRE 1184 576 1184 336
WIRE 1184 576 1072 576
WIRE 1264 576 1264 336
WIRE 1264 576 1184 576
WIRE 1344 576 1264 576
WIRE 336 624 336 576
WIRE 400 864 304 864
WIRE 608 864 464 864
WIRE 96 880 96 -80
WIRE 48 896 -272 896
WIRE 48 944 -352 944
WIRE -352 992 -352 944
WIRE 96 1008 96 960
WIRE 304 1008 304 864
WIRE 304 1008 96 1008
WIRE -272 1072 -272 896
WIRE -272 1072 -352 1072
WIRE -352 1104 -352 1072
WIRE 96 1120 96 1008
WIRE -16 1200 -16 272
WIRE 96 1200 -16 1200
FLAG 336 624 0
FLAG -16 -112 A
FLAG 1296 112 Vout
FLAG 640 112 Vc
FLAG -352 1104 0
SYMBOL voltage -16 112 R0
WINDOW 123 0 0 Left 0
WINDOW 39 0 0 Left 0
SYMATTR InstName V1
SYMATTR Value SINE(0 14.5 50)
SYMBOL diode 256 -64 R270
WINDOW 0 32 32 VTop 2
WINDOW 3 0 32 VBottom 2
SYMATTR InstName D1
SYMBOL diode 240 32 R180
WINDOW 0 24 64 Left 2
WINDOW 3 24 0 Left 2
SYMATTR InstName D3
SYMBOL diode 272 96 R270
WINDOW 0 32 32 VTop 2
WINDOW 3 0 32 VBottom 2
SYMATTR InstName D2
SYMBOL diode 384 32 R180
WINDOW 0 24 64 Left 2
WINDOW 3 24 0 Left 2
SYMATTR InstName D4
SYMBOL res 1056 176 R0
SYMATTR InstName R1
SYMATTR Value 200
SYMBOL res 1056 288 R0
SYMATTR InstName R2
SYMATTR Value 330R
SYMBOL cap 1168 272 R0
SYMATTR InstName C1
SYMATTR Value 10µ
SYMBOL cap 624 336 R0
SYMATTR InstName C2
SYMATTR Value 330µ
SYMBOL res 1248 240 R0
SYMATTR InstName Rload
SYMATTR Value 16.5
SYMBOL LM317 848 144 R0
SYMATTR InstName U2
SYMBOL ind 80 1104 R0
SYMATTR InstName L1
SYMATTR Value 10µH
SYMATTR SpiceLine Rser=5
SYMBOL voltage -352 976 R0
WINDOW 3 -545 193 Left 2
WINDOW 123 0 0 Left 0
WINDOW 39 0 0 Left 0
SYMATTR InstName V2
SYMATTR Value PULSE(0 12 0.01 0.00000001 0.00000001 0.08 0.17 100)
SYMBOL sw 96 864 R0
SYMATTR InstName S1
SYMATTR Value MYSW
SYMBOL diode 464 848 R90
WINDOW 0 0 32 VBottom 2
WINDOW 3 32 32 VTop 2
SYMATTR InstName D5
SYMBOL res 704 848 R90
WINDOW 0 0 56 VBottom 2
WINDOW 3 32 56 VTop 2
SYMATTR InstName R3
SYMATTR Value 1kR
TEXT 304 632 Left 2 !.tran 0.5
TEXT -144 1264 Left 2 !.model MYSW SW(Ron=1 Roff=1Meg Vt=.5 Vh=-.4)
