Version 4
SHEET 1 1412 680
WIRE -16 -80 -16 -112
WIRE 224 -80 -16 -80
WIRE 256 -80 224 -80
WIRE 368 -80 320 -80
WIRE 592 -80 368 -80
WIRE 224 -32 224 -80
WIRE 368 -32 368 -80
WIRE 224 80 224 32
WIRE 272 80 224 80
WIRE 368 80 368 32
WIRE 368 80 336 80
WIRE 432 80 368 80
WIRE 592 112 592 -80
WIRE 640 112 592 112
WIRE 768 112 640 112
WIRE 1072 112 928 112
WIRE 1184 112 1072 112
WIRE 1264 112 1184 112
WIRE 1296 112 1264 112
WIRE 1344 112 1296 112
WIRE -16 128 -16 -80
WIRE 1072 192 1072 112
WIRE 1264 256 1264 112
WIRE -16 272 -16 208
WIRE 432 272 432 80
WIRE 432 272 -16 272
WIRE 1184 272 1184 112
WIRE 848 288 848 208
WIRE 1072 288 1072 272
WIRE 1072 288 848 288
WIRE 1072 304 1072 288
WIRE 640 336 640 112
WIRE 224 576 224 80
WIRE 336 576 224 576
WIRE 640 576 640 400
WIRE 640 576 336 576
WIRE 1072 576 1072 384
WIRE 1072 576 640 576
WIRE 1184 576 1184 336
WIRE 1184 576 1072 576
WIRE 1264 576 1264 336
WIRE 1264 576 1184 576
WIRE 1344 576 1264 576
WIRE 336 624 336 576
FLAG 336 624 0
FLAG -16 -112 A
FLAG 1296 112 Vout
FLAG 640 112 Vc
SYMBOL voltage -16 112 R0
WINDOW 123 0 0 Left 0
WINDOW 39 0 0 Left 0
SYMATTR InstName V1
SYMATTR Value SINE(0 14.5 50)
SYMBOL diode 256 -64 R270
WINDOW 0 32 32 VTop 2
WINDOW 3 0 32 VBottom 2
SYMATTR InstName D1
SYMBOL diode 240 32 R180
WINDOW 0 24 64 Left 2
WINDOW 3 24 0 Left 2
SYMATTR InstName D3
SYMBOL diode 272 96 R270
WINDOW 0 32 32 VTop 2
WINDOW 3 0 32 VBottom 2
SYMATTR InstName D2
SYMBOL diode 384 32 R180
WINDOW 0 24 64 Left 2
WINDOW 3 24 0 Left 2
SYMATTR InstName D4
SYMBOL res 1056 176 R0
SYMATTR InstName R1
SYMATTR Value 120R
SYMBOL res 1056 288 R0
SYMATTR InstName R2
SYMATTR Value 200R
SYMBOL cap 1168 272 R0
SYMATTR InstName C1
SYMATTR Value 10µ
SYMBOL cap 624 336 R0
SYMATTR InstName C2
SYMATTR Value 330µ
SYMBOL res 1248 240 R0
SYMATTR InstName Rload
SYMATTR Value 16.5
SYMBOL LM317 848 144 R0
SYMATTR InstName U2
TEXT 304 632 Left 2 !.tran 1
