Version 4
SHEET 1 880 680
WIRE -16 80 -16 48
WIRE 144 80 -16 80
WIRE 336 80 208 80
WIRE 464 80 336 80
WIRE -16 128 -16 80
WIRE 336 144 336 80
WIRE 464 144 464 80
WIRE -16 320 -16 208
WIRE 336 320 336 208
WIRE 336 320 -16 320
WIRE 464 320 464 224
WIRE 464 320 336 320
WIRE -16 336 -16 320
FLAG -16 336 0
FLAG -16 48 A
SYMBOL voltage -16 112 R0
WINDOW 123 0 0 Left 0
WINDOW 39 0 0 Left 0
SYMATTR InstName V1
SYMATTR Value SINE(0 14.5 50)
SYMBOL res 448 128 R0
SYMATTR InstName R1
SYMATTR Value 100R
SYMBOL diode 144 96 R270
WINDOW 0 32 32 VTop 2
WINDOW 3 0 32 VBottom 2
SYMATTR InstName D1
SYMBOL cap 320 144 R0
SYMATTR InstName C1
SYMATTR Value 1000µ
TEXT -50 360 Left 2 !.tran 0.2
