Version 4
SHEET 1 1204 680
WIRE -16 -80 -16 -112
WIRE 224 -80 -16 -80
WIRE 256 -80 224 -80
WIRE 368 -80 320 -80
WIRE 592 -80 368 -80
WIRE 704 -80 592 -80
WIRE 592 -64 592 -80
WIRE 224 -32 224 -80
WIRE 368 -32 368 -80
WIRE 704 16 704 -80
WIRE 592 64 592 16
WIRE 640 64 592 64
WIRE 224 80 224 32
WIRE 272 80 224 80
WIRE 368 80 368 32
WIRE 368 80 336 80
WIRE 432 80 368 80
WIRE 1120 80 992 80
WIRE 592 96 592 64
WIRE 992 112 992 80
WIRE 992 112 704 112
WIRE -16 128 -16 -80
WIRE 992 144 992 112
WIRE 1120 144 1120 80
WIRE -16 272 -16 208
WIRE 432 272 432 80
WIRE 432 272 -16 272
WIRE -16 320 -16 272
WIRE 224 320 224 80
WIRE 336 320 224 320
WIRE 592 320 592 288
WIRE 592 320 336 320
WIRE 992 320 992 208
WIRE 992 320 592 320
WIRE 1120 320 1120 224
WIRE 1120 320 992 320
WIRE 336 368 336 320
FLAG 336 368 0
FLAG -16 -112 A
SYMBOL voltage -16 112 R0
WINDOW 123 0 0 Left 0
WINDOW 39 0 0 Left 0
SYMATTR InstName V1
SYMATTR Value SINE(0 14.5 50)
SYMBOL res 1104 128 R0
SYMATTR InstName R1
SYMATTR Value 100R
SYMBOL diode 256 -64 R270
WINDOW 0 32 32 VTop 2
WINDOW 3 0 32 VBottom 2
SYMATTR InstName D1
SYMBOL cap 976 144 R0
SYMATTR InstName C1
SYMATTR Value 1000µ
SYMBOL diode 240 32 R180
WINDOW 0 24 64 Left 2
WINDOW 3 24 0 Left 2
SYMATTR InstName D3
SYMBOL diode 272 96 R270
WINDOW 0 32 32 VTop 2
WINDOW 3 0 32 VBottom 2
SYMATTR InstName D2
SYMBOL diode 384 32 R180
WINDOW 0 24 64 Left 2
WINDOW 3 24 0 Left 2
SYMATTR InstName D4
SYMBOL npn 640 16 R0
SYMATTR InstName Q1
SYMBOL diode 576 224 R0
SYMATTR InstName D5
SYMBOL diode 576 160 R0
SYMATTR InstName D6
SYMBOL diode 576 96 R0
SYMATTR InstName D7
SYMBOL res 576 -80 R0
SYMATTR InstName R2
SYMATTR Value 10k
TEXT 302 376 Left 2 !.tran 0.2
