Version 4
SHEET 1 3044 1332
WIRE 352 -80 224 -80
WIRE 384 -80 352 -80
WIRE 496 -80 448 -80
WIRE 576 -80 496 -80
WIRE 1232 -80 576 -80
WIRE 352 -32 352 -80
WIRE 496 -32 496 -80
WIRE -16 48 -112 48
WIRE 0 48 -16 48
WIRE 144 48 48 48
WIRE 224 48 224 -80
WIRE 224 48 144 48
WIRE -112 80 -112 48
WIRE 352 80 352 32
WIRE 400 80 352 80
WIRE 496 80 496 32
WIRE 496 80 464 80
WIRE 576 112 576 -80
WIRE 704 112 576 112
WIRE 912 112 864 112
WIRE 1024 112 912 112
WIRE 1440 112 1024 112
WIRE 1808 112 1440 112
WIRE 1920 112 1872 112
WIRE 2016 112 1920 112
WIRE -112 192 -112 160
WIRE -16 192 -112 192
WIRE 0 192 -16 192
WIRE 48 192 32 192
WIRE 496 192 496 80
WIRE 496 192 48 192
WIRE 912 192 912 112
WIRE 1232 272 1232 -80
WIRE 1440 272 1440 112
WIRE -16 336 -112 336
WIRE 0 336 -16 336
WIRE 576 336 576 112
WIRE 576 336 48 336
WIRE -176 352 -256 352
WIRE -112 368 -112 336
WIRE -176 384 -176 352
WIRE -160 384 -176 384
WIRE 784 400 784 208
WIRE 912 400 912 272
WIRE 912 400 784 400
WIRE -160 432 -256 432
WIRE -112 480 -112 448
WIRE -16 480 -112 480
WIRE 208 480 48 480
WIRE 1088 480 208 480
WIRE 1232 480 1232 336
WIRE 1232 480 1168 480
WIRE 1312 480 1232 480
WIRE 1440 480 1440 336
WIRE 1440 480 1392 480
WIRE 1488 480 1440 480
WIRE 1632 480 1552 480
WIRE 1744 480 1632 480
WIRE 1808 480 1744 480
WIRE 2016 480 1872 480
WIRE 576 560 576 336
WIRE 912 576 912 400
WIRE 1744 576 1744 480
WIRE 1920 576 1920 112
WIRE 576 592 576 560
WIRE 1024 592 1024 112
WIRE 1632 592 1632 480
WIRE -16 608 -112 608
WIRE 208 608 208 480
WIRE 208 608 48 608
WIRE -112 624 -112 608
WIRE 208 656 208 608
WIRE -112 752 -112 704
WIRE -16 752 -112 752
WIRE 208 752 208 720
WIRE 208 752 48 752
WIRE 352 752 352 80
WIRE 352 752 208 752
WIRE 576 752 576 656
WIRE 576 752 352 752
WIRE 912 752 912 656
WIRE 912 752 576 752
WIRE 1024 752 1024 656
WIRE 1024 752 912 752
WIRE 1632 752 1632 656
WIRE 1632 752 1024 752
WIRE 1744 752 1744 656
WIRE 1744 752 1632 752
WIRE 1808 752 1744 752
WIRE 1920 752 1920 656
WIRE 1920 752 1872 752
WIRE 2032 752 1920 752
WIRE 576 816 576 752
FLAG 576 816 0
FLAG 576 560 Vc
FLAG 2016 480 Sense
FLAG 208 480 Vswitch
FLAG 2032 752 0V
FLAG 2016 112 3.4V
FLAG 144 48 Vac
SYMBOL voltage -112 64 R0
WINDOW 123 0 0 Left 0
WINDOW 39 0 0 Left 0
WINDOW 3 -218 51 Left 2
SYMATTR InstName V1
SYMATTR Value SINE(0 14.5 50)
SYMBOL diode 384 -64 R270
WINDOW 0 32 32 VTop 2
WINDOW 3 0 32 VBottom 2
SYMATTR InstName D1
SYMBOL diode 368 32 R180
WINDOW 0 24 64 Left 2
WINDOW 3 24 0 Left 2
SYMATTR InstName D3
SYMBOL diode 400 96 R270
WINDOW 0 32 32 VTop 2
WINDOW 3 0 32 VBottom 2
SYMATTR InstName D2
SYMBOL diode 512 32 R180
WINDOW 0 24 64 Left 2
WINDOW 3 24 0 Left 2
SYMATTR InstName D4
SYMBOL res 896 176 R0
SYMATTR InstName R1
SYMATTR Value 200
SYMBOL res 896 560 R0
SYMATTR InstName R2
SYMATTR Value 330R
SYMBOL cap 1008 592 R0
SYMATTR InstName C2
SYMATTR Value 10µ
SYMBOL cap 560 592 R0
SYMATTR InstName C1
SYMATTR Value 330µ
SYMBOL res 1904 560 R0
SYMATTR InstName Rload
SYMATTR Value 16.5
SYMBOL LM317 784 144 R0
SYMATTR InstName U2
SYMBOL ind -128 608 R0
SYMATTR InstName L1
SYMATTR Value 10µH
SYMATTR SpiceLine Rser=5
SYMBOL voltage -256 448 R180
WINDOW 3 -670 -379 Left 2
WINDOW 123 0 0 Left 0
WINDOW 39 0 0 Left 0
SYMATTR InstName V2
SYMATTR Value PULSE(0 12 0.01 0.00000001 0.00000001 0.08 0.17 2)
SYMBOL sw -112 352 R0
WINDOW 3 -29 112 Left 2
SYMATTR InstName S1
SYMATTR Value MYSW
SYMBOL res 1184 464 R90
WINDOW 0 0 56 VBottom 2
WINDOW 3 32 56 VTop 2
SYMATTR InstName R3
SYMATTR Value 1k
SYMBOL res 1728 560 R0
SYMATTR InstName R4
SYMATTR Value 10K
SYMBOL diode 1248 336 R180
WINDOW 0 24 64 Left 2
WINDOW 3 24 0 Left 2
SYMATTR InstName D6
SYMBOL res 1408 464 R90
WINDOW 0 0 56 VBottom 2
WINDOW 3 32 56 VTop 2
SYMATTR InstName R5
SYMATTR Value 1k
SYMBOL diode 1456 336 R180
WINDOW 0 24 64 Left 2
WINDOW 3 24 0 Left 2
SYMATTR InstName D7
SYMBOL diode 1488 496 R270
WINDOW 0 32 32 VTop 2
WINDOW 3 0 32 VBottom 2
SYMATTR InstName D8
SYMBOL cap 1616 592 R0
SYMATTR InstName C3
SYMATTR Value 10µ
SYMBOL Misc\\jumper 16 -16 R0
SYMATTR InstName 15VAC.1
SYMBOL Misc\\jumper 16 128 R0
SYMATTR InstName 15VAC.2
SYMBOL Misc\\jumper 16 272 R0
SYMATTR InstName SW.1
SYMBOL Misc\\jumper 16 416 R0
SYMATTR InstName SW.2
SYMBOL Misc\\jumper 16 544 R0
WINDOW 0 -4 32 Bottom 2
SYMATTR InstName SOL.1
SYMBOL Misc\\jumper 16 688 R0
SYMATTR InstName SOL.2
SYMBOL diode 224 720 R180
WINDOW 0 24 64 Left 2
WINDOW 3 24 0 Left 2
SYMATTR InstName D5
SYMBOL Misc\\jumper 1840 48 R0
SYMATTR InstName X1
SYMBOL Misc\\jumper 1840 416 R0
SYMATTR InstName X2
SYMBOL Misc\\jumper 1840 688 R0
SYMATTR InstName X3
TEXT -120 864 Left 2 !.tran 0.5
TEXT -112 792 Left 2 !.model MYSW SW(Ron=1 Roff=1Meg Vt=.5 Vh=-.4)
